Circuit: * C:\Users\juddf\Documents\Electronic Load\Simulation\ConstantCurrentRTN-COMPath.asc

Instance "m:u1:1": Length shorter than recommended for a level 1 MOSFET.
Instance "m:u1:1": Width narrower than recommended for a level 1 MOSFET.
Direct Newton iteration for .op point succeeded.

Date: Mon Nov 10 20:20:38 2025
Total elapsed time: 0.145 seconds.

tnom = 27
temp = 27
method = trap
totiter = 2760
traniter = 2721
tranpoints = 1318
accept = 1247
rejected = 71
matrix size = 111
fillins = 154
solver = Alternate
Avg thread counts: 3.7/5.5/5.4/3.2
Matrix Compiler1: 17.71 KB object code size  4.2/3.4/[3.4]
Matrix Compiler2: 12.93 KB object code size  2.2/2.3/[1.5]

