Circuit: * C:\Users\juddf\Documents\Electronic Load\Simulation\ConstantCurrentOutputFrequencyResponse.asc

Instance "m:u1:1": Length shorter than recommended for a level 1 MOSFET.
Instance "m:u1:1": Width narrower than recommended for a level 1 MOSFET.
Direct Newton iteration failed to find .op point.  (Use ".option noopiter" to skip.)
Starting Gmin stepping
Gmin = 10
vernier = 0.5
Gmin = 1.67772
vernier = 0.25
vernier = 0.125
Gmin = 1.20453
vernier = 0.0625
vernier = 0.03125
Gmin = 1.14054
vernier = 0.0416667
vernier = 0.0208333
vernier = 0.0277778
Gmin = 1.08658
vernier = 0.0138889
vernier = 0.0185185
vernier = 0.00925925
Gmin = 1.07037
vernier = 0.0123457
vernier = 0.00617283
Gmin = 1.05481
vernier = 0.00823044
vernier = 0.00411522
vernier = 0.00548696
Gmin = 1.04509
vernier = 0.00274348
vernier = 0.00365797
Gmin = 1.03914
vernier = 0.0048773
vernier = 0.00243865
vernier = 0.00325153
Gmin = 1.03324
vernier = 0.00162576
vernier = 0.00216769
Gmin = 1.02975
vernier = 0.00289025
vernier = 0.00144512
vernier = 0.00192683
Gmin = 1.02628
vernier = 0.000963415
vernier = 0.00128455
Gmin = 1.02423
vernier = 0.00171274
vernier = 0.000856369
vernier = 0.00114182
Gmin = 1.02218
vernier = 0.00152243
vernier = 0.000761216
Gmin = 1.02014
vernier = 0.00101495
vernier = 0.000507477
vernier = 0.000676636
Gmin = 1.01893
vernier = 0.000902182
vernier = 0.000451091
Gmin = 1.01773
vernier = 0.000601454
vernier = 0.000801939
vernier = 0.000400969
Gmin = 1.01658
vernier = 0.000534626
Gmin = 1.01539
vernier = 0.000712834
vernier = 0.000534626
vernier = 0.000712834
vernier = 0.000534626
Gmin = 1.01458
vernier = 0.000400969
Gmin = 1.01367
vernier = 0.000534625
vernier = 0.000400969
vernier = 0.000534625
vernier = 0.000400969
Gmin = 1.01306
vernier = 0.000534625
vernier = 0.000400969
Gmin = 1.01224
Gmin = 0
Gmin stepping succeeded in finding the operating point.

.step x=0.1
.step x=1
.step x=10

Date: Tue Oct 21 21:10:36 2025
Total elapsed time: 3.183 seconds.

tnom = 27
temp = 27
method = trap
totiter = 15639
traniter = 0
tranpoints = 0
accept = 0
rejected = 0
matrix size = 114
fillins = 282
solver = Alternate
Avg thread counts: 1.4/0.0/15.0/1.2
Matrix Compiler1:    1435 opcodes
Matrix Compiler2: 15.77 KB object code size  1.7/1.7/[1.5]

