Circuit: * C:\Users\juddf\Documents\Electronic Load\Simulation\ConstantCurrentLoopGainPhaseMargin.asc

Instance "m:u1:1": Length shorter than recommended for a level 1 MOSFET.
Instance "m:u1:1": Width narrower than recommended for a level 1 MOSFET.
Direct Newton iteration for .op point succeeded.

Date: Thu Oct 30 18:28:51 2025
Total elapsed time: 0.225 seconds.

tnom = 27
temp = 27
method = trap
totiter = 50
traniter = 0
tranpoints = 0
accept = 0
rejected = 0
matrix size = 113
fillins = 134
solver = Alternate
Avg thread counts: 16.0/0.0/16.0/1.5
Matrix Compiler1:     663 opcodes
Matrix Compiler2:     857 opcodes
