Circuit: * C:\Users\juddf\Documents\Electronic Load\Simulation\Draft3.asc

Direct Newton iteration for .op point succeeded.

Date: Sun Nov 23 21:07:21 2025
Total elapsed time: 0.102 seconds.

tnom = 27
temp = 27
method = trap
totiter = 3032
traniter = 3027
tranpoints = 1345
accept = 1274
rejected = 71
matrix size = 20
fillins = 5
solver = Alternate
Avg thread counts: 2.9/5.4/4.8/2.9
Matrix Compiler1: 1022 bytes object code size  0.5/0.3/[0.4]
Matrix Compiler2: 1.46 KB object code size  0.3/0.4/[0.3]

