Circuit: * C:\Users\juddf\Documents\Electronic Load\Simulation\Power Button.asc

Warning: Multiple definitions of model "2scr375p" Type: BJT
Warning: Multiple definitions of model "bc857b" Type: BJT
Warning: Multiple definitions of model "bc847c" Type: BJT
Warning: Multiple definitions of model "bc847b" Type: BJT
Direct Newton iteration for .op point succeeded.
.step vs=3
.step vs=3.7
.step vs=4.2

Date: Tue Oct 28 20:40:54 2025
Total elapsed time: 0.341 seconds.

tnom = 27
temp = 27
method = trap
totiter = 3072
traniter = 3052
tranpoints = 1405
accept = 1344
rejected = 61
matrix size = 21
fillins = 0
solver = Alternate
Avg thread counts: 2.9/5.2/5.2/2.9
Matrix Compiler1:      68 opcodes  0.5/[0.4]/0.4
Matrix Compiler2: 1.79 KB object code size  0.4/0.5/[0.3]

